
* cell freepdk45_sram_4kbytes_1rw_32x1024_8
* pin addr0[0]
* pin addr0[1]
* pin addr0[2]
* pin wmask0[0]
* pin wmask0[1]
* pin wmask0[2]
* pin wmask0[3]
* pin din0[0]
* pin din0[1]
* pin din0[2]
* pin dout0[0]
* pin din0[3]
* pin din0[4]
* pin dout0[1]
* pin din0[5]
* pin dout0[2]
* pin din0[6]
* pin din0[7]
* pin dout0[3]
* pin din0[8]
* pin din0[9]
* pin din0[10]
* pin dout0[4]
* pin din0[11]
* pin din0[12]
* pin dout0[5]
* pin din0[13]
* pin dout0[6]
* pin din0[14]
* pin din0[15]
* pin din0[16]
* pin dout0[7]
* pin din0[17]
* pin dout0[8]
* pin din0[18]
* pin din0[19]
* pin dout0[9]
* pin din0[20]
* pin din0[21]
* pin dout0[10]
* pin din0[22]
* pin din0[23]
* pin dout0[11]
* pin din0[24]
* pin din0[25]
* pin dout0[12]
* pin din0[26]
* pin din0[27]
* pin dout0[13]
* pin din0[28]
* pin din0[29]
* pin dout0[14]
* pin din0[30]
* pin din0[31]
* pin dout0[15]
* pin din0[32]
* pin spare_wen0
* pin dout0[16]
* pin dout0[17]
* pin dout0[18]
* pin dout0[19]
* pin dout0[20]
* pin dout0[21]
* pin dout0[22]
* pin dout0[23]
* pin dout0[24]
* pin dout0[25]
* pin dout0[26]
* pin dout0[27]
* pin dout0[28]
* pin csb0
* pin web0
* pin clk0
* pin dout0[29]
* pin dout0[31]
* pin dout0[32]
* pin dout0[30]
* pin addr0[3]
* pin addr0[4]
* pin addr0[5]
* pin addr0[7]
* pin addr0[6]
* pin addr0[8]
* pin addr0[9]
* pin addr0[10]
* pin vdd
* pin gnd
.SUBCKT freepdk45_sram_4kbytes_1rw_32x1024_8 1 2 3 4 5 6 7 8 9 10 11 12 13 14
+ 15 16 17 18 19 20 21 22 23 24 25 26 27 28 29 30 31 32 33 34 35 36 37 38 39 40
+ 41 42 43 44 45 46 47 48 49 50 51 52 53 54 55 56 57 58 59 60 61 62 63 64 65 66
+ 67 68 69 70 72 73 74 75 76 77 82 84 86 87 88 89 93 94 95 100 101
* net 1 addr0[0]
* net 2 addr0[1]
* net 3 addr0[2]
* net 4 wmask0[0]
* net 5 wmask0[1]
* net 6 wmask0[2]
* net 7 wmask0[3]
* net 8 din0[0]
* net 9 din0[1]
* net 10 din0[2]
* net 11 dout0[0]
* net 12 din0[3]
* net 13 din0[4]
* net 14 dout0[1]
* net 15 din0[5]
* net 16 dout0[2]
* net 17 din0[6]
* net 18 din0[7]
* net 19 dout0[3]
* net 20 din0[8]
* net 21 din0[9]
* net 22 din0[10]
* net 23 dout0[4]
* net 24 din0[11]
* net 25 din0[12]
* net 26 dout0[5]
* net 27 din0[13]
* net 28 dout0[6]
* net 29 din0[14]
* net 30 din0[15]
* net 31 din0[16]
* net 32 dout0[7]
* net 33 din0[17]
* net 34 dout0[8]
* net 35 din0[18]
* net 36 din0[19]
* net 37 dout0[9]
* net 38 din0[20]
* net 39 din0[21]
* net 40 dout0[10]
* net 41 din0[22]
* net 42 din0[23]
* net 43 dout0[11]
* net 44 din0[24]
* net 45 din0[25]
* net 46 dout0[12]
* net 47 din0[26]
* net 48 din0[27]
* net 49 dout0[13]
* net 50 din0[28]
* net 51 din0[29]
* net 52 dout0[14]
* net 53 din0[30]
* net 54 din0[31]
* net 55 dout0[15]
* net 56 din0[32]
* net 57 spare_wen0
* net 58 dout0[16]
* net 59 dout0[17]
* net 60 dout0[18]
* net 61 dout0[19]
* net 62 dout0[20]
* net 63 dout0[21]
* net 64 dout0[22]
* net 65 dout0[23]
* net 66 dout0[24]
* net 67 dout0[25]
* net 68 dout0[26]
* net 69 dout0[27]
* net 70 dout0[28]
* net 72 csb0
* net 73 web0
* net 74 clk0
* net 75 dout0[29]
* net 76 dout0[31]
* net 77 dout0[32]
* net 82 dout0[30]
* net 84 addr0[3]
* net 86 addr0[4]
* net 87 addr0[5]
* net 88 addr0[7]
* net 89 addr0[6]
* net 93 addr0[8]
* net 94 addr0[9]
* net 95 addr0[10]
* net 100 vdd
* net 101 gnd
* cell instance $3 r0 *1 27.29,3.2
X$3 1 142 2 141 3 140 71 100 101
+ freepdk45_sram_4kbytes_1rw_32x1024_8_col_addr_dff
* cell instance $9 r0 *1 35.87,3.2
X$9 4 139 5 137 6 138 7 136 71 100 101
+ freepdk45_sram_4kbytes_1rw_32x1024_8_wmask_dff
* cell instance $18 r0 *1 47.31,3.2
X$18 71 8 135 9 134 10 133 12 132 13 131 15 130 17 129 18 128 20 127 21 126 22
+ 125 24 124 25 123 27 122 29 121 30 120 31 119 33 118 35 117 36 116 38 115 39
+ 114 41 113 42 112 44 111 45 110 47 109 48 108 50 107 51 106 53 105 54 104 56
+ 103 100 101 freepdk45_sram_4kbytes_1rw_32x1024_8_data_dff
* cell instance $26 r0 *1 24.71,11.55
X$26 142 141 140 139 137 138 136 81 135 134 133 132 131 130 129 128 127 126 125
+ 124 123 122 121 120 119 118 117 116 115 114 113 112 111 110 109 108 107 106
+ 105 104 103 102 80 78 11 14 16 19 23 26 28 32 34 37 40 43 46 49 52 55 58 59
+ 60 61 62 63 64 65 66 67 68 69 70 75 82 76 77 79 85 92 91 90 98 97 96 99 83
+ 100 101 freepdk45_sram_4kbytes_1rw_32x1024_8_bank
* cell instance $118 r0 *1 141.69,3.2
X$118 57 102 71 100 101 freepdk45_sram_4kbytes_1rw_32x1024_8_spare_wen_dff
* cell instance $146 r0 *1 3.2525,14.635
X$146 72 71 74 73 78 79 81 83 80 100 101
+ freepdk45_sram_4kbytes_1rw_32x1024_8_control_logic_rw
* cell instance $147 r0 *1 21.57,70.275
X$147 84 85 86 92 87 91 89 90 88 98 93 97 94 96 95 99 71 100 101
+ freepdk45_sram_4kbytes_1rw_32x1024_8_row_addr_dff
.ENDS freepdk45_sram_4kbytes_1rw_32x1024_8

* cell freepdk45_sram_4kbytes_1rw_32x1024_8_spare_wen_dff
* pin din_0
* pin dout_0
* pin clk
* pin vdd
* pin gnd
.SUBCKT freepdk45_sram_4kbytes_1rw_32x1024_8_spare_wen_dff 1 2 3 4 5
* net 1 din_0
* net 2 dout_0
* net 3 clk
* net 4 vdd
* net 5 gnd
* cell instance $1 r0 *1 0,0
X$1 2 1 3 4 5 dff
.ENDS freepdk45_sram_4kbytes_1rw_32x1024_8_spare_wen_dff

* cell freepdk45_sram_4kbytes_1rw_32x1024_8_wmask_dff
* pin din_0
* pin dout_0
* pin din_1
* pin dout_1
* pin din_2
* pin dout_2
* pin din_3
* pin dout_3
* pin clk
* pin vdd
* pin gnd
.SUBCKT freepdk45_sram_4kbytes_1rw_32x1024_8_wmask_dff 1 2 3 4 5 6 7 8 9 10 11
* net 1 din_0
* net 2 dout_0
* net 3 din_1
* net 4 dout_1
* net 5 din_2
* net 6 dout_2
* net 7 din_3
* net 8 dout_3
* net 9 clk
* net 10 vdd
* net 11 gnd
* cell instance $1 r0 *1 0,0
X$1 2 1 9 10 11 dff
* cell instance $2 r0 *1 2.86,0
X$2 4 3 9 10 11 dff
* cell instance $3 r0 *1 5.72,0
X$3 6 5 9 10 11 dff
* cell instance $4 r0 *1 8.58,0
X$4 8 7 9 10 11 dff
.ENDS freepdk45_sram_4kbytes_1rw_32x1024_8_wmask_dff

* cell freepdk45_sram_4kbytes_1rw_32x1024_8_control_logic_rw
* pin csb
* pin clk_buf
* pin clk
* pin web
* pin s_en
* pin rbl_bl
* pin w_en
* pin wl_en
* pin p_en_bar
* pin vdd
* pin gnd
.SUBCKT freepdk45_sram_4kbytes_1rw_32x1024_8_control_logic_rw 1 2 4 8 13 14 16
+ 17 18 19 20
* net 1 csb
* net 2 clk_buf
* net 4 clk
* net 8 web
* net 13 s_en
* net 14 rbl_bl
* net 16 w_en
* net 17 wl_en
* net 18 p_en_bar
* net 19 vdd
* net 20 gnd
* cell instance $1 r0 *1 0,0
X$1 1 3 8 10 6 2 19 20 freepdk45_sram_4kbytes_1rw_32x1024_8_dff_buf_array
* cell instance $3 r0 *1 6.385,4.94
X$3 9 2 3 19 20 freepdk45_sram_4kbytes_1rw_32x1024_8_pand2_0
* cell instance $5 m0 *1 6.385,4.94
X$5 2 7 19 20 freepdk45_sram_4kbytes_1rw_32x1024_8_pinv_3
* cell instance $9 r0 *1 6.385,0
X$9 2 4 19 20 freepdk45_sram_4kbytes_1rw_32x1024_8_pdriver_2
* cell instance $17 m0 *1 7.0725,4.94
X$17 5 7 3 19 20 freepdk45_sram_4kbytes_1rw_32x1024_8_pand2_0
* cell instance $20 m0 *1 6.385,9.88
X$20 13 12 5 10 19 20 freepdk45_sram_4kbytes_1rw_32x1024_8_pand3_1
* cell instance $21 m0 *1 6.385,19.76
X$21 17 5 19 20 freepdk45_sram_4kbytes_1rw_32x1024_8_pdriver_3
* cell instance $22 r0 *1 6.385,9.88
X$22 16 6 11 5 19 20 freepdk45_sram_4kbytes_1rw_32x1024_8_pand3_0
* cell instance $32 m0 *1 6.385,14.82
X$32 9 12 15 19 20 freepdk45_sram_4kbytes_1rw_32x1024_8_pnand2_2
* cell instance $43 r0 *1 6.385,14.82
X$43 12 11 19 20 freepdk45_sram_4kbytes_1rw_32x1024_8_pinv_3
* cell instance $45 m0 *1 0,32.11
X$45 12 14 19 20 freepdk45_sram_4kbytes_1rw_32x1024_8_delay_chain
* cell instance $52 m0 *1 7.2875,14.82
X$52 18 15 19 20 freepdk45_sram_4kbytes_1rw_32x1024_8_pdriver_6
.ENDS freepdk45_sram_4kbytes_1rw_32x1024_8_control_logic_rw

* cell freepdk45_sram_4kbytes_1rw_32x1024_8_col_addr_dff
* pin din_0
* pin dout_0
* pin din_1
* pin dout_1
* pin din_2
* pin dout_2
* pin clk
* pin vdd
* pin gnd
.SUBCKT freepdk45_sram_4kbytes_1rw_32x1024_8_col_addr_dff 1 2 3 4 5 6 7 8 9
* net 1 din_0
* net 2 dout_0
* net 3 din_1
* net 4 dout_1
* net 5 din_2
* net 6 dout_2
* net 7 clk
* net 8 vdd
* net 9 gnd
* cell instance $1 r0 *1 0,0
X$1 2 1 7 8 9 dff
* cell instance $2 r0 *1 2.86,0
X$2 4 3 7 8 9 dff
* cell instance $3 r0 *1 5.72,0
X$3 6 5 7 8 9 dff
.ENDS freepdk45_sram_4kbytes_1rw_32x1024_8_col_addr_dff

* cell freepdk45_sram_4kbytes_1rw_32x1024_8_row_addr_dff
* pin din_0
* pin dout_0
* pin din_1
* pin dout_1
* pin din_2
* pin dout_2
* pin din_3
* pin dout_3
* pin din_4
* pin dout_4
* pin din_5
* pin dout_5
* pin din_6
* pin dout_6
* pin din_7
* pin dout_7
* pin clk
* pin vdd
* pin gnd
.SUBCKT freepdk45_sram_4kbytes_1rw_32x1024_8_row_addr_dff 1 2 3 4 5 6 7 8 9 10
+ 11 12 13 14 15 16 17 18 19
* net 1 din_0
* net 2 dout_0
* net 3 din_1
* net 4 dout_1
* net 5 din_2
* net 6 dout_2
* net 7 din_3
* net 8 dout_3
* net 9 din_4
* net 10 dout_4
* net 11 din_5
* net 12 dout_5
* net 13 din_6
* net 14 dout_6
* net 15 din_7
* net 16 dout_7
* net 17 clk
* net 18 vdd
* net 19 gnd
* cell instance $1 r0 *1 0,0
X$1 2 1 17 18 19 dff
* cell instance $2 m0 *1 0,4.94
X$2 4 3 17 18 19 dff
* cell instance $3 r0 *1 0,4.94
X$3 6 5 17 18 19 dff
* cell instance $4 m0 *1 0,9.88
X$4 8 7 17 18 19 dff
* cell instance $5 r0 *1 0,9.88
X$5 10 9 17 18 19 dff
* cell instance $6 m0 *1 0,14.82
X$6 12 11 17 18 19 dff
* cell instance $7 r0 *1 0,14.82
X$7 14 13 17 18 19 dff
* cell instance $8 m0 *1 0,19.76
X$8 16 15 17 18 19 dff
.ENDS freepdk45_sram_4kbytes_1rw_32x1024_8_row_addr_dff

* cell freepdk45_sram_4kbytes_1rw_32x1024_8_data_dff
* pin clk
* pin din_0
* pin dout_0
* pin din_1
* pin dout_1
* pin din_2
* pin dout_2
* pin din_3
* pin dout_3
* pin din_4
* pin dout_4
* pin din_5
* pin dout_5
* pin din_6
* pin dout_6
* pin din_7
* pin dout_7
* pin din_8
* pin dout_8
* pin din_9
* pin dout_9
* pin din_10
* pin dout_10
* pin din_11
* pin dout_11
* pin din_12
* pin dout_12
* pin din_13
* pin dout_13
* pin din_14
* pin dout_14
* pin din_15
* pin dout_15
* pin din_16
* pin dout_16
* pin din_17
* pin dout_17
* pin din_18
* pin dout_18
* pin din_19
* pin dout_19
* pin din_20
* pin dout_20
* pin din_21
* pin dout_21
* pin din_22
* pin dout_22
* pin din_23
* pin dout_23
* pin din_24
* pin dout_24
* pin din_25
* pin dout_25
* pin din_26
* pin dout_26
* pin din_27
* pin dout_27
* pin din_28
* pin dout_28
* pin din_29
* pin dout_29
* pin din_30
* pin dout_30
* pin din_31
* pin dout_31
* pin din_32
* pin dout_32
* pin vdd
* pin gnd
.SUBCKT freepdk45_sram_4kbytes_1rw_32x1024_8_data_dff 1 2 3 4 5 6 7 8 9 10 11
+ 12 13 14 15 16 17 18 19 20 21 22 23 24 25 26 27 28 29 30 31 32 33 34 35 36 37
+ 38 39 40 41 42 43 44 45 46 47 48 49 50 51 52 53 54 55 56 57 58 59 60 61 62 63
+ 64 65 66 67 68 69
* net 1 clk
* net 2 din_0
* net 3 dout_0
* net 4 din_1
* net 5 dout_1
* net 6 din_2
* net 7 dout_2
* net 8 din_3
* net 9 dout_3
* net 10 din_4
* net 11 dout_4
* net 12 din_5
* net 13 dout_5
* net 14 din_6
* net 15 dout_6
* net 16 din_7
* net 17 dout_7
* net 18 din_8
* net 19 dout_8
* net 20 din_9
* net 21 dout_9
* net 22 din_10
* net 23 dout_10
* net 24 din_11
* net 25 dout_11
* net 26 din_12
* net 27 dout_12
* net 28 din_13
* net 29 dout_13
* net 30 din_14
* net 31 dout_14
* net 32 din_15
* net 33 dout_15
* net 34 din_16
* net 35 dout_16
* net 36 din_17
* net 37 dout_17
* net 38 din_18
* net 39 dout_18
* net 40 din_19
* net 41 dout_19
* net 42 din_20
* net 43 dout_20
* net 44 din_21
* net 45 dout_21
* net 46 din_22
* net 47 dout_22
* net 48 din_23
* net 49 dout_23
* net 50 din_24
* net 51 dout_24
* net 52 din_25
* net 53 dout_25
* net 54 din_26
* net 55 dout_26
* net 56 din_27
* net 57 dout_27
* net 58 din_28
* net 59 dout_28
* net 60 din_29
* net 61 dout_29
* net 62 din_30
* net 63 dout_30
* net 64 din_31
* net 65 dout_31
* net 66 din_32
* net 67 dout_32
* net 68 vdd
* net 69 gnd
* cell instance $1 r0 *1 71.5,0
X$1 53 52 1 68 69 dff
* cell instance $2 r0 *1 22.88,0
X$2 19 18 1 68 69 dff
* cell instance $3 r0 *1 20.02,0
X$3 17 16 1 68 69 dff
* cell instance $4 r0 *1 17.16,0
X$4 15 14 1 68 69 dff
* cell instance $5 r0 *1 14.3,0
X$5 13 12 1 68 69 dff
* cell instance $6 r0 *1 11.44,0
X$6 11 10 1 68 69 dff
* cell instance $7 r0 *1 8.58,0
X$7 9 8 1 68 69 dff
* cell instance $8 r0 *1 68.64,0
X$8 51 50 1 68 69 dff
* cell instance $9 r0 *1 2.86,0
X$9 5 4 1 68 69 dff
* cell instance $10 r0 *1 74.36,0
X$10 55 54 1 68 69 dff
* cell instance $11 r0 *1 77.22,0
X$11 57 56 1 68 69 dff
* cell instance $12 r0 *1 80.08,0
X$12 59 58 1 68 69 dff
* cell instance $13 r0 *1 82.94,0
X$13 61 60 1 68 69 dff
* cell instance $14 r0 *1 85.8,0
X$14 63 62 1 68 69 dff
* cell instance $15 r0 *1 88.66,0
X$15 65 64 1 68 69 dff
* cell instance $16 r0 *1 91.52,0
X$16 67 66 1 68 69 dff
* cell instance $17 r0 *1 5.72,0
X$17 7 6 1 68 69 dff
* cell instance $18 r0 *1 45.76,0
X$18 35 34 1 68 69 dff
* cell instance $19 r0 *1 48.62,0
X$19 37 36 1 68 69 dff
* cell instance $20 r0 *1 0,0
X$20 3 2 1 68 69 dff
* cell instance $21 r0 *1 42.9,0
X$21 33 32 1 68 69 dff
* cell instance $22 r0 *1 40.04,0
X$22 31 30 1 68 69 dff
* cell instance $23 r0 *1 37.18,0
X$23 29 28 1 68 69 dff
* cell instance $24 r0 *1 34.32,0
X$24 27 26 1 68 69 dff
* cell instance $25 r0 *1 31.46,0
X$25 25 24 1 68 69 dff
* cell instance $26 r0 *1 28.6,0
X$26 23 22 1 68 69 dff
* cell instance $27 r0 *1 25.74,0
X$27 21 20 1 68 69 dff
* cell instance $28 r0 *1 51.48,0
X$28 39 38 1 68 69 dff
* cell instance $29 r0 *1 54.34,0
X$29 41 40 1 68 69 dff
* cell instance $30 r0 *1 57.2,0
X$30 43 42 1 68 69 dff
* cell instance $31 r0 *1 60.06,0
X$31 45 44 1 68 69 dff
* cell instance $32 r0 *1 62.92,0
X$32 47 46 1 68 69 dff
* cell instance $33 r0 *1 65.78,0
X$33 49 48 1 68 69 dff
.ENDS freepdk45_sram_4kbytes_1rw_32x1024_8_data_dff

* cell freepdk45_sram_4kbytes_1rw_32x1024_8_bank
* pin addr0_0
* pin addr0_1
* pin addr0_2
* pin bank_wmask0_0
* pin bank_wmask0_1
* pin bank_wmask0_2
* pin bank_wmask0_3
* pin w_en0
* pin din0_0
* pin din0_1
* pin din0_2
* pin din0_3
* pin din0_4
* pin din0_5
* pin din0_6
* pin din0_7
* pin din0_8
* pin din0_9
* pin din0_10
* pin din0_11
* pin din0_12
* pin din0_13
* pin din0_14
* pin din0_15
* pin din0_16
* pin din0_17
* pin din0_18
* pin din0_19
* pin din0_20
* pin din0_21
* pin din0_22
* pin din0_23
* pin din0_24
* pin din0_25
* pin din0_26
* pin din0_27
* pin din0_28
* pin din0_29
* pin din0_30
* pin din0_31
* pin din0_32
* pin bank_spare_wen0_0
* pin p_en_bar0
* pin s_en0
* pin dout0_0
* pin dout0_1
* pin dout0_2
* pin dout0_3
* pin dout0_4
* pin dout0_5
* pin dout0_6
* pin dout0_7
* pin dout0_8
* pin dout0_9
* pin dout0_10
* pin dout0_11
* pin dout0_12
* pin dout0_13
* pin dout0_14
* pin dout0_15
* pin dout0_16
* pin dout0_17
* pin dout0_18
* pin dout0_19
* pin dout0_20
* pin dout0_21
* pin dout0_22
* pin dout0_23
* pin dout0_24
* pin dout0_25
* pin dout0_26
* pin dout0_27
* pin dout0_28
* pin dout0_29
* pin dout0_30
* pin dout0_31
* pin dout0_32
* pin rbl_bl_0_0
* pin addr0_3
* pin addr0_4
* pin addr0_5
* pin addr0_6
* pin addr0_7
* pin addr0_8
* pin addr0_9
* pin addr0_10
* pin wl_en0
* pin vdd
* pin gnd
.SUBCKT freepdk45_sram_4kbytes_1rw_32x1024_8_bank 1 3 5 7 8 9 10 11 13 14 15 16
+ 17 18 19 20 21 22 23 24 25 26 27 28 29 30 31 32 33 34 35 36 37 38 39 40 41 42
+ 43 44 45 46 48 49 52 53 54 55 56 57 58 59 60 61 62 63 64 65 66 67 68 69 70 71
+ 72 73 74 75 76 77 78 79 80 81 82 83 84 86 602 603 604 605 606 607 608 609 610
+ 741 742
* net 1 addr0_0
* net 3 addr0_1
* net 5 addr0_2
* net 7 bank_wmask0_0
* net 8 bank_wmask0_1
* net 9 bank_wmask0_2
* net 10 bank_wmask0_3
* net 11 w_en0
* net 13 din0_0
* net 14 din0_1
* net 15 din0_2
* net 16 din0_3
* net 17 din0_4
* net 18 din0_5
* net 19 din0_6
* net 20 din0_7
* net 21 din0_8
* net 22 din0_9
* net 23 din0_10
* net 24 din0_11
* net 25 din0_12
* net 26 din0_13
* net 27 din0_14
* net 28 din0_15
* net 29 din0_16
* net 30 din0_17
* net 31 din0_18
* net 32 din0_19
* net 33 din0_20
* net 34 din0_21
* net 35 din0_22
* net 36 din0_23
* net 37 din0_24
* net 38 din0_25
* net 39 din0_26
* net 40 din0_27
* net 41 din0_28
* net 42 din0_29
* net 43 din0_30
* net 44 din0_31
* net 45 din0_32
* net 46 bank_spare_wen0_0
* net 48 p_en_bar0
* net 49 s_en0
* net 52 dout0_0
* net 53 dout0_1
* net 54 dout0_2
* net 55 dout0_3
* net 56 dout0_4
* net 57 dout0_5
* net 58 dout0_6
* net 59 dout0_7
* net 60 dout0_8
* net 61 dout0_9
* net 62 dout0_10
* net 63 dout0_11
* net 64 dout0_12
* net 65 dout0_13
* net 66 dout0_14
* net 67 dout0_15
* net 68 dout0_16
* net 69 dout0_17
* net 70 dout0_18
* net 71 dout0_19
* net 72 dout0_20
* net 73 dout0_21
* net 74 dout0_22
* net 75 dout0_23
* net 76 dout0_24
* net 77 dout0_25
* net 78 dout0_26
* net 79 dout0_27
* net 80 dout0_28
* net 81 dout0_29
* net 82 dout0_30
* net 83 dout0_31
* net 84 dout0_32
* net 86 rbl_bl_0_0
* net 602 addr0_3
* net 603 addr0_4
* net 604 addr0_5
* net 605 addr0_6
* net 606 addr0_7
* net 607 addr0_8
* net 608 addr0_9
* net 609 addr0_10
* net 610 wl_en0
* net 741 vdd
* net 742 gnd
* cell instance $1 r0 *1 5.415,0.1375
X$1 2 4 6 12 47 51 50 85 1 3 5 741 742
+ freepdk45_sram_4kbytes_1rw_32x1024_8_column_decoder
* cell instance $2 m0 *1 26.49,22.985
X$2 86 87 88 89 90 92 93 94 96 98 99 100 102 103 104 106 108 109 110 111 112
+ 113 114 115 116 117 118 119 120 122 124 125 126 127 128 129 130 131 132 134
+ 135 136 138 139 140 142 143 144 145 146 147 148 149 150 151 152 153 154 155
+ 156 157 158 159 160 161 162 164 165 166 167 168 169 170 171 172 173 174 175
+ 176 177 178 179 180 181 182 183 184 185 186 187 188 190 191 192 194 196 198
+ 200 201 202 203 204 205 206 208 209 210 211 212 213 214 215 216 217 218 219
+ 220 221 222 223 224 225 226 227 228 229 230 231 232 233 234 235 236 238 239
+ 240 241 242 243 244 245 246 247 248 249 250 251 252 253 254 255 256 257 258
+ 259 260 261 262 263 264 265 266 267 268 269 270 271 272 273 274 276 277 278
+ 279 280 281 282 283 284 286 287 288 289 290 291 292 294 296 297 298 299 300
+ 302 303 304 306 307 308 309 310 312 313 314 315 316 317 318 320 321 322 323
+ 324 325 326 328 329 330 331 332 334 335 336 337 338 339 340 341 342 344 345
+ 346 347 348 349 350 351 352 353 354 355 356 357 358 359 360 361 362 363 364
+ 365 366 367 368 369 370 371 372 373 374 375 376 378 379 380 381 382 383 384
+ 385 386 387 388 389 390 391 392 393 394 395 396 397 398 399 400 401 402 403
+ 404 405 406 408 409 410 411 412 413 414 415 416 417 418 419 420 421 422 423
+ 424 425 426 427 428 429 430 431 432 433 434 436 437 438 440 441 442 443 444
+ 446 447 448 449 450 451 452 453 454 456 457 458 459 460 461 462 464 465 466
+ 467 468 469 470 471 472 473 474 475 476 477 478 479 480 481 482 483 484 485
+ 486 487 488 489 490 491 492 493 494 495 496 497 498 499 500 501 502 503 504
+ 505 506 507 508 509 510 511 512 513 514 515 516 517 518 519 520 521 522 524
+ 525 526 527 528 529 530 531 532 534 535 536 537 538 539 540 542 543 544 545
+ 546 548 549 550 551 552 553 554 555 556 557 558 559 560 561 562 563 564 565
+ 566 568 570 571 572 573 574 576 577 578 580 582 584 586 587 588 589 590 592
+ 593 594 595 596 597 598 599 600 601 91 95 97 101 105 107 121 123 133 137 141
+ 163 189 193 195 197 199 207 237 275 285 293 295 301 305 311 319 327 333 48
+ 343 377 407 435 439 445 455 463 523 533 541 547 567 569 575 579 581 583 585
+ 591 85 50 51 47 12 6 4 2 52 53 54 55 56 57 58 59 60 61 62 63 64 65 66 67 49
+ 68 69 70 71 72 73 74 75 76 77 78 79 80 81 82 83 84 13 14 15 16 17 18 19 20 21
+ 22 23 24 25 26 27 28 11 29 30 31 32 33 34 35 36 37 38 39 40 41 42 43 44 45 46
+ 7 8 9 10 741 742 freepdk45_sram_4kbytes_1rw_32x1024_8_port_data
* cell instance $20 r0 *1 26.49,22.985
X$20 86 87 88 89 90 91 92 93 94 95 96 97 98 99 100 101 102 103 104 105 106 107
+ 108 109 110 111 112 113 114 115 116 117 118 119 120 121 122 123 124 125 126
+ 127 128 129 130 131 132 133 134 135 136 137 138 139 140 141 142 143 144 145
+ 146 147 148 149 150 151 152 153 154 155 156 157 158 159 160 161 162 163 164
+ 165 166 167 168 169 170 171 172 173 174 175 176 177 178 179 180 181 182 183
+ 184 185 186 187 188 189 190 191 192 193 194 195 196 197 198 199 200 201 202
+ 203 204 205 206 207 208 209 210 211 212 213 214 215 216 217 218 219 220 221
+ 222 223 224 225 226 227 228 229 230 231 232 233 234 235 236 237 238 239 240
+ 241 242 243 244 245 246 247 248 249 250 251 252 253 254 255 256 257 258 259
+ 260 261 262 263 264 265 266 267 268 269 270 271 272 273 274 275 276 277 278
+ 279 280 281 282 283 284 285 286 287 288 289 290 291 292 293 294 295 296 297
+ 298 299 300 301 302 303 304 305 306 307 308 309 310 311 312 313 314 315 316
+ 317 318 319 320 321 322 323 324 325 326 327 328 329 330 331 332 333 334 335
+ 336 337 338 339 340 341 342 343 674 662 714 611 675 658 657 647 653 642 650
+ 685 649 640 664 630 693 661 663 716 639 698 656 654 619 633 648 687 689 651
+ 676 677 678 699 670 671 665 627 694 669 679 636 710 659 696 680 734 660 708
+ 652 738 666 655 667 718 703 622 727 620 629 616 625 690 736 732 344 345 346
+ 347 348 349 350 351 352 353 354 355 356 357 358 359 360 361 362 363 364 365
+ 366 367 368 369 370 371 372 373 374 375 376 377 378 379 380 381 382 383 384
+ 385 386 387 388 389 390 391 392 393 394 395 396 397 398 399 400 401 402 403
+ 404 405 406 407 408 409 410 411 412 413 414 415 416 417 418 419 420 421 422
+ 423 424 425 426 427 428 429 430 431 432 433 434 435 436 437 438 439 440 441
+ 442 443 444 445 446 447 448 449 450 451 452 453 454 455 456 457 458 459 460
+ 461 462 463 464 465 466 467 468 469 470 471 472 473 474 475 476 477 478 479
+ 480 481 482 483 484 485 486 487 488 489 490 491 492 493 494 495 496 497 498
+ 499 500 501 502 503 504 505 506 507 508 509 510 511 512 513 514 515 516 517
+ 518 519 520 521 522 523 524 525 526 527 528 529 530 531 532 533 534 535 536
+ 537 538 539 540 541 542 543 544 545 546 547 548 549 550 551 552 553 554 555
+ 556 557 558 559 560 561 562 563 564 565 566 567 568 569 570 571 572 573 574
+ 575 576 577 578 579 580 581 582 583 584 585 586 587 588 589 590 591 592 593
+ 594 595 596 597 598 599 600 601 709 707 717 641 706 646 672 711 715 621 618
+ 712 726 729 713 634 691 728 617 673 737 643 735 733 697 692 730 644 623 684
+ 740 739 695 681 722 721 645 731 682 683 686 720 688 719 614 631 612 724 628
+ 723 705 704 613 668 632 638 702 624 725 635 701 700 637 626 615 741 742
+ freepdk45_sram_4kbytes_1rw_32x1024_8_capped_replica_bitcell_array
* cell instance $22 r0 *1 0,25.965
X$22 610 703 710 680 708 696 732 736 714 716 639 636 640 602 603 604 605 606
+ 607 608 609 642 611 627 671 670 678 676 651 648 654 656 619 633 687 689 698
+ 699 694 685 693 690 734 738 718 727 629 630 625 616 620 622 667 666 655 652
+ 660 659 661 662 663 664 649 650 653 647 657 658 675 677 674 679 669 665 668
+ 672 621 673 623 624 628 626 612 613 615 614 617 618 641 643 644 645 634 646
+ 631 632 637 635 638 723 724 725 728 729 717 715 719 720 721 722 740 739 730
+ 733 737 735 731 726 691 692 695 697 681 684 682 683 688 686 707 709 711 706
+ 713 712 701 700 704 702 705 741 742
+ freepdk45_sram_4kbytes_1rw_32x1024_8_port_address
.ENDS freepdk45_sram_4kbytes_1rw_32x1024_8_bank

* cell freepdk45_sram_4kbytes_1rw_32x1024_8_pnand2_2
* pin A
* pin B
* pin Z
* pin vdd
* pin gnd
.SUBCKT freepdk45_sram_4kbytes_1rw_32x1024_8_pnand2_2 1 2 3 4 5
* net 1 A
* net 2 B
* net 3 Z
* net 4 vdd
* net 5 gnd
* device instance $1 r0 *1 0.2325,2.21 PMOS_VTG
M$1 4 1 3 4 PMOS_VTG L=0.05U W=0.27U AS=0.034425P AD=0.022275P PS=0.795U
+ PD=0.435U
* device instance $2 r0 *1 0.4475,2.21 PMOS_VTG
M$2 3 2 4 4 PMOS_VTG L=0.05U W=0.27U AS=0.022275P AD=0.034425P PS=0.435U
+ PD=0.795U
* device instance $3 r0 *1 0.2325,0.215 NMOS_VTG
M$3 5 1 6 5 NMOS_VTG L=0.05U W=0.18U AS=0.02295P AD=0.01485P PS=0.615U PD=0.345U
* device instance $4 r0 *1 0.4475,0.215 NMOS_VTG
M$4 6 2 3 5 NMOS_VTG L=0.05U W=0.18U AS=0.01485P AD=0.02295P PS=0.345U PD=0.615U
.ENDS freepdk45_sram_4kbytes_1rw_32x1024_8_pnand2_2

* cell freepdk45_sram_4kbytes_1rw_32x1024_8_dff_buf_array
* pin din_0
* pin dout_bar_0
* pin din_1
* pin dout_1
* pin dout_bar_1
* pin clk
* pin vdd
* pin gnd
.SUBCKT freepdk45_sram_4kbytes_1rw_32x1024_8_dff_buf_array 1 3 4 5 6 7 8 9
* net 1 din_0
* net 2 dout_0
* net 3 dout_bar_0
* net 4 din_1
* net 5 dout_1
* net 6 dout_bar_1
* net 7 clk
* net 8 vdd
* net 9 gnd
* cell instance $1 r0 *1 0,0
X$1 3 2 7 1 8 9 freepdk45_sram_4kbytes_1rw_32x1024_8_dff_buf_0
* cell instance $2 m0 *1 0,4.94
X$2 6 5 7 4 8 9 freepdk45_sram_4kbytes_1rw_32x1024_8_dff_buf_0
.ENDS freepdk45_sram_4kbytes_1rw_32x1024_8_dff_buf_array

* cell freepdk45_sram_4kbytes_1rw_32x1024_8_pand2_0
* pin Z
* pin A
* pin B
* pin vdd
* pin gnd
.SUBCKT freepdk45_sram_4kbytes_1rw_32x1024_8_pand2_0 2 3 4 5 6
* net 2 Z
* net 3 A
* net 4 B
* net 5 vdd
* net 6 gnd
* cell instance $1 r0 *1 0,0
X$1 3 4 1 5 6 freepdk45_sram_4kbytes_1rw_32x1024_8_pnand2_1
* cell instance $2 r0 *1 0.75,0
X$2 2 1 5 6 freepdk45_sram_4kbytes_1rw_32x1024_8_pdriver_1
.ENDS freepdk45_sram_4kbytes_1rw_32x1024_8_pand2_0

* cell freepdk45_sram_4kbytes_1rw_32x1024_8_pdriver_6
* pin Z
* pin A
* pin vdd
* pin gnd
.SUBCKT freepdk45_sram_4kbytes_1rw_32x1024_8_pdriver_6 5 6 8 9
* net 5 Z
* net 6 A
* net 8 vdd
* net 9 gnd
* cell instance $1 r0 *1 1.375,0
X$1 1 2 8 9 freepdk45_sram_4kbytes_1rw_32x1024_8_pinv_9
* cell instance $2 r0 *1 0.6875,0
X$2 7 1 8 9 freepdk45_sram_4kbytes_1rw_32x1024_8_pinv_2
* cell instance $3 r0 *1 2.0625,0
X$3 2 3 8 9 freepdk45_sram_4kbytes_1rw_32x1024_8_pinv_17
* cell instance $4 r0 *1 3.3,0
X$4 3 4 8 9 freepdk45_sram_4kbytes_1rw_32x1024_8_pinv_18
* cell instance $5 r0 *1 6.1875,0
X$5 4 5 8 9 freepdk45_sram_4kbytes_1rw_32x1024_8_pinv_19
* cell instance $6 r0 *1 0,0
X$6 6 7 8 9 freepdk45_sram_4kbytes_1rw_32x1024_8_pinv_2
.ENDS freepdk45_sram_4kbytes_1rw_32x1024_8_pdriver_6

* cell freepdk45_sram_4kbytes_1rw_32x1024_8_delay_chain
* pin out
* pin in
* pin vdd
* pin gnd
.SUBCKT freepdk45_sram_4kbytes_1rw_32x1024_8_delay_chain 1 10 11 12
* net 1 out
* net 10 in
* net 11 vdd
* net 12 gnd
* cell instance $2 r0 *1 0.6875,19.76
X$2 1 37 11 12 freepdk45_sram_4kbytes_1rw_32x1024_8_pinv_20
* cell instance $5 r0 *1 1.375,19.76
X$5 1 36 11 12 freepdk45_sram_4kbytes_1rw_32x1024_8_pinv_20
* cell instance $8 r0 *1 2.0625,19.76
X$8 1 35 11 12 freepdk45_sram_4kbytes_1rw_32x1024_8_pinv_20
* cell instance $11 r0 *1 2.75,19.76
X$11 1 34 11 12 freepdk45_sram_4kbytes_1rw_32x1024_8_pinv_20
* cell instance $14 r0 *1 0,19.76
X$14 9 1 11 12 freepdk45_sram_4kbytes_1rw_32x1024_8_pinv_20
* cell instance $17 r0 *1 1.375,0
X$17 2 29 11 12 freepdk45_sram_4kbytes_1rw_32x1024_8_pinv_20
* cell instance $20 r0 *1 0.6875,0
X$20 2 46 11 12 freepdk45_sram_4kbytes_1rw_32x1024_8_pinv_20
* cell instance $23 m0 *1 0,4.94
X$23 2 3 11 12 freepdk45_sram_4kbytes_1rw_32x1024_8_pinv_20
* cell instance $25 r0 *1 2.0625,0
X$25 2 45 11 12 freepdk45_sram_4kbytes_1rw_32x1024_8_pinv_20
* cell instance $28 r0 *1 2.75,0
X$28 2 47 11 12 freepdk45_sram_4kbytes_1rw_32x1024_8_pinv_20
* cell instance $31 r0 *1 0,0
X$31 10 2 11 12 freepdk45_sram_4kbytes_1rw_32x1024_8_pinv_20
* cell instance $34 m0 *1 2.0625,4.94
X$34 3 22 11 12 freepdk45_sram_4kbytes_1rw_32x1024_8_pinv_20
* cell instance $37 r0 *1 0,4.94
X$37 3 4 11 12 freepdk45_sram_4kbytes_1rw_32x1024_8_pinv_20
* cell instance $39 m0 *1 2.75,4.94
X$39 3 23 11 12 freepdk45_sram_4kbytes_1rw_32x1024_8_pinv_20
* cell instance $42 m0 *1 0.6875,4.94
X$42 3 16 11 12 freepdk45_sram_4kbytes_1rw_32x1024_8_pinv_20
* cell instance $47 m0 *1 1.375,4.94
X$47 3 13 11 12 freepdk45_sram_4kbytes_1rw_32x1024_8_pinv_20
* cell instance $50 r0 *1 1.375,4.94
X$50 4 31 11 12 freepdk45_sram_4kbytes_1rw_32x1024_8_pinv_20
* cell instance $55 r0 *1 2.75,4.94
X$55 4 33 11 12 freepdk45_sram_4kbytes_1rw_32x1024_8_pinv_20
* cell instance $58 r0 *1 2.0625,4.94
X$58 4 32 11 12 freepdk45_sram_4kbytes_1rw_32x1024_8_pinv_20
* cell instance $61 m0 *1 0,9.88
X$61 4 5 11 12 freepdk45_sram_4kbytes_1rw_32x1024_8_pinv_20
* cell instance $63 r0 *1 0.6875,4.94
X$63 4 30 11 12 freepdk45_sram_4kbytes_1rw_32x1024_8_pinv_20
* cell instance $66 m0 *1 2.0625,9.88
X$66 5 15 11 12 freepdk45_sram_4kbytes_1rw_32x1024_8_pinv_20
* cell instance $69 r0 *1 0,9.88
X$69 5 6 11 12 freepdk45_sram_4kbytes_1rw_32x1024_8_pinv_20
* cell instance $71 m0 *1 0.6875,9.88
X$71 5 27 11 12 freepdk45_sram_4kbytes_1rw_32x1024_8_pinv_20
* cell instance $74 m0 *1 2.75,9.88
X$74 5 21 11 12 freepdk45_sram_4kbytes_1rw_32x1024_8_pinv_20
* cell instance $79 m0 *1 1.375,9.88
X$79 5 14 11 12 freepdk45_sram_4kbytes_1rw_32x1024_8_pinv_20
* cell instance $82 m0 *1 0,14.82
X$82 6 7 11 12 freepdk45_sram_4kbytes_1rw_32x1024_8_pinv_20
* cell instance $84 r0 *1 2.0625,9.88
X$84 6 43 11 12 freepdk45_sram_4kbytes_1rw_32x1024_8_pinv_20
* cell instance $87 r0 *1 0.6875,9.88
X$87 6 48 11 12 freepdk45_sram_4kbytes_1rw_32x1024_8_pinv_20
* cell instance $92 r0 *1 1.375,9.88
X$92 6 44 11 12 freepdk45_sram_4kbytes_1rw_32x1024_8_pinv_20
* cell instance $95 r0 *1 2.75,9.88
X$95 6 42 11 12 freepdk45_sram_4kbytes_1rw_32x1024_8_pinv_20
* cell instance $100 m0 *1 2.75,14.82
X$100 7 24 11 12 freepdk45_sram_4kbytes_1rw_32x1024_8_pinv_20
* cell instance $103 m0 *1 2.0625,14.82
X$103 7 25 11 12 freepdk45_sram_4kbytes_1rw_32x1024_8_pinv_20
* cell instance $106 m0 *1 0.6875,14.82
X$106 7 28 11 12 freepdk45_sram_4kbytes_1rw_32x1024_8_pinv_20
* cell instance $109 m0 *1 1.375,14.82
X$109 7 26 11 12 freepdk45_sram_4kbytes_1rw_32x1024_8_pinv_20
* cell instance $112 r0 *1 0,14.82
X$112 7 8 11 12 freepdk45_sram_4kbytes_1rw_32x1024_8_pinv_20
* cell instance $114 r0 *1 1.375,14.82
X$114 8 40 11 12 freepdk45_sram_4kbytes_1rw_32x1024_8_pinv_20
* cell instance $117 r0 *1 0.6875,14.82
X$117 8 41 11 12 freepdk45_sram_4kbytes_1rw_32x1024_8_pinv_20
* cell instance $120 r0 *1 2.0625,14.82
X$120 8 39 11 12 freepdk45_sram_4kbytes_1rw_32x1024_8_pinv_20
* cell instance $123 r0 *1 2.75,14.82
X$123 8 38 11 12 freepdk45_sram_4kbytes_1rw_32x1024_8_pinv_20
* cell instance $128 m0 *1 0,19.76
X$128 8 9 11 12 freepdk45_sram_4kbytes_1rw_32x1024_8_pinv_20
* cell instance $130 m0 *1 1.375,19.76
X$130 9 19 11 12 freepdk45_sram_4kbytes_1rw_32x1024_8_pinv_20
* cell instance $133 m0 *1 0.6875,19.76
X$133 9 20 11 12 freepdk45_sram_4kbytes_1rw_32x1024_8_pinv_20
* cell instance $136 m0 *1 2.0625,19.76
X$136 9 18 11 12 freepdk45_sram_4kbytes_1rw_32x1024_8_pinv_20
* cell instance $139 m0 *1 2.75,19.76
X$139 9 17 11 12 freepdk45_sram_4kbytes_1rw_32x1024_8_pinv_20
.ENDS freepdk45_sram_4kbytes_1rw_32x1024_8_delay_chain

* cell freepdk45_sram_4kbytes_1rw_32x1024_8_pand3_1
* pin Z
* pin A
* pin B
* pin C
* pin vdd
* pin gnd